Version 4
SHEET 1 880 680
WIRE 80 176 80 64
WIRE 0 0 0 0
